*LTspice
*
*AL8805
*High efficiency 36V/1A buck led driver. XP-E white.
*AE01003805
*
*netlist
.include AL8805_XPE_WHITE.cir
*
*params
*
.param VSOURCE=24
.param VPUL=5
.param RSENSE1=0.402
.param RSENSE2=0.402
.param RCTRL=1K
*
.param FREQ=500
.param PERCENT=80
.param DELAY=0.5m
.param REPEAT=2
.param TR=100n
.param TF=100n
*
.param CYCLE=1/FREQ
.param X_BASE=(CYCLE*REPEAT)+DELAY
.param DUTY=(PERCENT/100)*CYCLE
*
*transient response
.tran 0 {X_BASE} 0 uic startup
*
*.backanno
*.op
